* PSpice Model Editor - Version 17.4.0
*$
*BeginSpec
*IF: (2.7103,989.18E-6) (2.8446,989.18E-6) (2.9089,1.4634E-3) (2.9965,2.4139E-3) (3.0783,3.8121E-3) (3.1367,5.2834E-3) (3.2185,7.6482E-3) (3.2710,9.7164E-3) (3.3879,13.177E-3)
*IF: (3.5280,18.262E-3) (3.7325,25.036E-3) (4.0012,36.243E-3) (4.2582,51.897E-3) (4.4568,69.617E-3) (4.6028,83.760E-3)
*JC:
*RL:
*RB: Vz=0 Iz=0 Zz=0
*RR: Trr=0 Ifwd=10.000E-3 Irev=10.000E-3 Rl=100
*EndSpec
*BeginTrace
*IF: 1,0,.4,4.6028,1,3,0,0,-1 (27)
*JC: 0,1,.1,10,1,3,0,0,-1 (27)
*RL: 0,0,1,100,1,3,0,0,-1 (27)
*RB: 0,1,100.00E-6,1,1,3,0,0,-1 (27)
*RR: 0,0,-5.0000E-9,20.000E-9,1,3,0,0,-1 (27)
*EndTrace
*BeginParam
*IS=463.22E-15 (10.000E-21,.1,0)
*N=5 (.2,5,0)
*RS=10.833 (1.0000E-6,100,0)
*IKF=3.7916E-3 (0,1.0000E3,0)
*XTI=3 (-100,100,0)
*EG=1.1100 (.1,5.5100,0)
*CJO=1.0000E-12 (10.000E-21,1.0000E-3,0)
*M=.3333 (.1,10,0)
*VJ=.75 (.3905,10,0)
*FC=.5 (1.0000E-3,10,0)
*ISR=100.00E-12 (10.000E-21,.1,0)
*NR=2 (.5,5,0)
*BV=100 (.1,1.0000E6,0)
*IBV=100.00E-6 (1.0000E-9,10,0)
*TT=5.0000E-9 (100.00E-18,1.0000E-3,0)
*EndParam
*DEVICE=albastru,D
* albastru D model
* created using Model Editor release 17.4.0 on 05/14/22 at 18:00
* The Model Editor is a PSpice product.
.MODEL albastru D
+ IS=463.22E-15
+ N=5
+ RS=10.833

*$
