* PSpice Model Editor - Version 17.4.0
*$
*BeginSpec
*IF: (1.7673,1.0100E-3) (1.7987,1.6144E-3) (1.8275,2.5042E-3) (1.8510,3.8846E-3) (1.8771,5.9067E-3) (1.8954,8.6300E-3) (1.9242,13.254E-3) (1.9425,19.365E-3) (2.0131,25.101E-3)
*IF: (2.0993,34.889E-3) (2.1882,48.013E-3) (2.2876,66.073E-3) (2.3425,78.287E-3) (2.3948,90.927E-3)
*JC:
*RL:
*RB: Vz=0 Iz=0 Zz=0
*RR: Trr=0 Ifwd=10.000E-3 Irev=10.000E-3 Rl=100
*EndSpec
*BeginTrace
*IF: 1,0,.4,2.3948,1,3,0,0,-1 (27)
*JC: 0,1,.1,10,1,3,0,0,-1 (27)
*RL: 0,0,1,100,1,3,0,0,-1 (27)
*RB: 0,1,100.00E-6,1,1,3,0,0,-1 (27)
*RR: 0,0,-5.0000E-9,20.000E-9,1,3,0,0,-1 (27)
*EndTrace
*BeginParam
*IS=10.000E-21 (10.000E-21,.1,0)
*N=1.7380 (.2,5,0)
*RS=4.8824 (1.0000E-6,100,0)
*IKF=1.1417 (0,1.0000E3,0)
*XTI=3 (-100,100,0)
*EG=1.1100 (.1,5.5100,0)
*CJO=1.0000E-12 (10.000E-21,1.0000E-3,0)
*M=.3333 (.1,10,0)
*VJ=.75 (.3905,10,0)
*FC=.5 (1.0000E-3,10,0)
*ISR=100.00E-12 (10.000E-21,.1,0)
*NR=2 (.5,5,0)
*BV=100 (.1,1.0000E6,0)
*IBV=100.00E-6 (1.0000E-9,10,0)
*TT=5.0000E-9 (100.00E-18,1.0000E-3,0)
*EndParam
*DEVICE=galben,D
* galben D model
* created using Model Editor release 17.4.0 on 05/14/22 at 18:21
* The Model Editor is a PSpice product.
.MODEL galben D
+ IS=10.000E-21
+ N=1.7380
+ RS=4.8824

*$
