* PSpice Model Editor - Version 17.4.0
*$
*BeginSpec
*IF: (2.0808,219.18E-6) (4.7736,487.06E-6) (7.4051,742.77E-6) (10.220,1.0289E-3) (13.219,1.4064E-3) (16.585,1.8082E-3) (19.033,2.1796E-3) (21.359,2.5023E-3) (23.195,2.8067E-3)
*IF: (24.541,2.9954E-3) (27.173,3.4825E-3) (29.621,3.9330E-3)
*JC:
*RL:
*RB: Vz=0 Iz=0 Zz=0
*RR: Trr=0 Ifwd=10.000E-3 Irev=10.000E-3 Rl=100
*EndSpec
*BeginTrace
*IF: 1,0,.4,29.621,1,3,0,0,-1 (27)
*JC: 0,1,.1,10,1,3,0,0,-1 (27)
*RL: 0,0,1,100,1,3,0,0,-1 (27)
*RB: 0,1,100.00E-6,1,1,3,0,0,-1 (27)
*RR: 0,0,-5.0000E-9,20.000E-9,1,3,0,0,-1 (27)
*EndTrace
*BeginParam
*IS=10.010E-21 (10.000E-21,.1,0)
*N=4.9950 (.2,5,0)
*RS=99.900 (1.0000E-6,100,0)
*IKF=16.132E-42 (0,1.0000E3,0)
*XTI=3 (-100,100,0)
*EG=1.1100 (.1,5.5100,0)
*CJO=1.0000E-12 (10.000E-21,1.0000E-3,0)
*M=.3333 (.1,10,0)
*VJ=.75 (.3905,10,0)
*FC=.5 (1.0000E-3,10,0)
*ISR=100.00E-12 (10.000E-21,.1,0)
*NR=2 (.5,5,0)
*BV=100 (.1,1.0000E6,0)
*IBV=100.00E-6 (1.0000E-9,10,0)
*TT=5.0000E-9 (100.00E-18,1.0000E-3,0)
*EndParam
*DEVICE=portocaliu,D
* portocaliu D model
* created using Model Editor release 17.4.0 on 05/14/22 at 18:27
* The Model Editor is a PSpice product.
.MODEL portocaliu D
+ IS=10.010E-21
+ N=4.9950
+ RS=99.900

*$
