* PSpice Model Editor - Version 17.4.0
*$
*BeginSpec
*IF: (1.6277,987.49E-6) (1.6332,1.5731E-3) (1.6391,2.8781E-3) (1.6451,4.8217E-3) (1.6489,7.7785E-3) (1.6533,12.084E-3) (1.6576,19.009E-3) (1.6707,25.712E-3) (1.6832,34.778E-3)
*IF: (1.6967,46.453E-3) (1.7147,66.078E-3) (1.7321,91.656E-3)
*JC:
*RL:
*RB: Vz=0 Iz=0 Zz=0
*RR: Trr=0 Ifwd=10.000E-3 Irev=10.000E-3 Rl=100
*EndSpec
*BeginTrace
*IF: 1,0,.4,1.7321,1,3,0,0,-1 (27)
*JC: 0,1,.1,10,1,3,0,0,-1 (27)
*RL: 0,0,1,100,1,3,0,0,-1 (27)
*RB: 0,1,100.00E-6,1,1,3,0,0,-1 (27)
*RR: 0,0,-5.0000E-9,20.000E-9,1,3,0,0,-1 (27)
*EndTrace
*BeginParam
*IS=10.000E-21 (10.000E-21,.1,0)
*N=1.5470 (.2,5,0)
*RS=1.0000E-6 (1.0000E-6,100,0)
*IKF=999 (0,1.0000E3,0)
*XTI=3 (-100,100,0)
*EG=1.1100 (.1,5.5100,0)
*CJO=1.0000E-12 (10.000E-21,1.0000E-3,0)
*M=.3333 (.1,10,0)
*VJ=.75 (.3905,10,0)
*FC=.5 (1.0000E-3,10,0)
*ISR=100.00E-12 (10.000E-21,.1,0)
*NR=2 (.5,5,0)
*BV=100 (.1,1.0000E6,0)
*IBV=100.00E-6 (1.0000E-9,10,0)
*TT=5.0000E-9 (100.00E-18,1.0000E-3,0)
*EndParam
*DEVICE=rosu,D
* rosu D model
* created using Model Editor release 17.4.0 on 05/14/22 at 18:16
* The Model Editor is a PSpice product.
.MODEL rosu D
+ IS=10.000E-21
+ N=1.5470
+ RS=1.0000E-6

*$
