* PSpice Model Editor - Version 17.4.0
*$
*BeginSpec
*IF: (2.6978,989.70E-6) (2.8407,979.52E-6) (2.9011,1.3926E-3) (2.9670,2.1285E-3) (3.0220,2.8735E-3) (3.0824,4.1706E-3) (3.1374,5.4020E-3) (3.2418,7.6799E-3) (3.3242,10.261E-3)
*IF: (3.4451,15.684E-3) (3.5440,21.394E-3) (3.6703,27.425E-3) (3.8022,36.265E-3) (3.9231,46.489E-3) (4.1209,60.215E-3) (4.3516,82.135E-3)
*JC:
*RL:
*RB: Vz=0 Iz=0 Zz=0
*RR: Trr=0 Ifwd=10.000E-3 Irev=10.000E-3 Rl=100
*EndSpec
*BeginTrace
*IF: 1,0,.4,4.3516,1,3,0,0,-1 (27)
*JC: 0,1,.1,10,1,3,0,0,-1 (27)
*RL: 0,0,1,100,1,3,0,0,-1 (27)
*RB: 0,1,100.00E-6,1,1,3,0,0,-1 (27)
*RR: 0,0,-5.0000E-9,20.000E-9,1,3,0,0,-1 (27)
*EndTrace
*BeginParam
*IS=7.7954E-15 (10.000E-21,.1,0)
*N=3.6796 (.2,5,0)
*RS=8.9643 (1.0000E-6,100,0)
*IKF=25.090E-6 (0,1.0000E3,0)
*XTI=3 (-100,100,0)
*EG=1.1100 (.1,5.5100,0)
*CJO=1.0000E-12 (10.000E-21,1.0000E-3,0)
*M=.3333 (.1,10,0)
*VJ=.75 (.3905,10,0)
*FC=.5 (1.0000E-3,10,0)
*ISR=100.00E-12 (10.000E-21,.1,0)
*NR=2 (.5,5,0)
*BV=100 (.1,1.0000E6,0)
*IBV=100.00E-6 (1.0000E-9,10,0)
*TT=5.0000E-9 (100.00E-18,1.0000E-3,0)
*EndParam
*DEVICE=verde,D
* verde D model
* created using Model Editor release 17.4.0 on 05/14/22 at 18:07
* The Model Editor is a PSpice product.
.MODEL verde D
+ IS=7.7954E-15
+ N=3.6796
+ RS=8.9643
*$
